psse/psse-converter/src/test/resources/raw-export-failing.raw
0,100.0,35,0,0,50.0
Thu, 5 Feb 2026 20:44:33 GMT N400_3S

0 / END OF SYSTEM-WIDE DATA, BEGIN BUS DATA
1,'VL1_400_0',400.0,2,1,1,1,1.0,0.0,1.1,0.9,1.1,0.9
2,'VL2_400_0',400.0,1,1,1,1,1.0,0.0,1.1,0.9,1.1,0.9
3,'B3',400.0,4,1,1,1,1.0,0.0,1.1,0.9,1.1,0.9
0 / END OF BUS DATA, BEGIN LOAD DATA
2,'01',1,1,1,300.0,60.0,0.0,0.0,0.0,0.0,1,1,0,0.0,0.0,0,''
0 / END OF LOAD DATA, BEGIN FIXED SHUNT DATA
0 / END OF FIXED SHUNT DATA, BEGIN GENERATOR DATA
1,'01',800.0,0.0,25.0,-20.0,1.0,0,0,100.0,0.0,1.0,0.0,0.0,1.0,1,100.0,2000.0,0.0,0,1,1.0,0,1.0,0,1.0,0,1.0,0,1.0
0 / END OF GENERATOR DATA, BEGIN BRANCH DATA
1,2,'01',1.25E-5,1.5625E-4,0.0,'S1-S2',0.0,0.0,0.0,0.0,0.0,0.0,0.0,0.0,0.0,0.0,0.0,0.0,0.0,0.0,0.0,0.0,1,1,0.0,1,1.0,0,1.0,0,1.0,0,1.0
2,3,'01',1.25E-5,1.5625E-4,0.0,'S2-S3',0.0,0.0,0.0,0.0,0.0,0.0,0.0,0.0,0.0,0.0,0.0,0.0,0.0,0.0,0.0,0.0,0,1,0.0,1,1.0,0,1.0,0,1.0,0,1.0
0 / END OF BRANCH DATA, BEGIN SYSTEM SWITCHING DEVICE DATA
0 / END OF SYSTEM SWITCHING DEVICE DATA, BEGIN TRANSFORMER DATA
0 / END OF TRANSFORMER DATA, BEGIN AREA DATA
0 / END OF AREA DATA, BEGIN TWO-TERMINAL DC DATA
0 / END OF TWO-TERMINAL DC DATA, BEGIN VOLTAGE SOURCE CONVERTER DATA
0 / END OF VOLTAGE SOURCE CONVERTER DATA, BEGIN IMPEDANCE CORRECTION DATA
0 / END OF IMPEDANCE CORRECTION DATA, BEGIN MULTI-TERMINAL DC DATA
0 / END OF MULTI-TERMINAL DC DATA, BEGIN MULTI-SECTION LINE DATA
0 / END OF MULTI-SECTION LINE DATA, BEGIN ZONE DATA
0 / END OF ZONE DATA, BEGIN INTER-AREA TRANSFER DATA
0 / END OF INTER-AREA TRANSFER DATA, BEGIN OWNER DATA
0 / END OF OWNER DATA, BEGIN FACTS CONTROL DEVICE DATA
0 / END OF FACTS CONTROL DEVICE DATA, BEGIN SWITCHED SHUNT DATA
0 / END OF SWITCHED SHUNT DATA, BEGIN GNE DEVICE DATA
0 / END OF GNE DEVICE DATA, BEGIN INDUCTION MACHINE DATA
0 / END OF INDUCTION MACHINE DATA, BEGIN SUBSTATION DATA
0 / END OF SUBSTATION DATA
Q
